/*--------------------------------*- C++ -*----------------------------------*\
| =========                 |                                                 |
| \\      /  F ield         | OpenFOAM: The Open Source CFD Toolbox           |
|  \\    /   O peration     | Version:  2306                                  |
|   \\  /    A nd           | Website:  www.openfoam.com                      |
|    \\/     M anipulation  |                                                 |
\*---------------------------------------------------------------------------*/
FoamFile
{
    version     2.0;
    format      ascii;
    arch        "LSB;label=32;scalar=64";
    class       dictionary;
    location    "constant/polyMesh";
    object      meshMetaDict;
}
// * * * * * * * * * * * * * * * * * * * * * * * * * * * * * * * * * * * * * //

surfaceFile     "Combined.fms";

surfaceMeta
{
    nPoints         24;
    nFacets         24;
    nPatches        4;
    nFeatureEdges   31;
    patches
    {
        inlet1
        {
            type            patch;
            nFacets         2;
        }
        outlet1
        {
            type            patch;
            nFacets         4;
        }
        top
        {
            type            patch;
            nFacets         2;
        }
        wall1
        {
            type            wall;
            nFacets         16;
        }
    }
    pointSubsets
    {
    }
    facetSubsets
    {
    }
    featureEdgeSubsets
    {
    }
}
