/*--------------------------------*- C++ -*----------------------------------*\
| =========                 |                                                 |
| \\      /  F ield         | OpenFOAM: The Open Source CFD Toolbox           |
|  \\    /   O peration     | Version:  v2306                                 |
|   \\  /    A nd           | Website:  www.openfoam.com                      |
|    \\/     M anipulation  |                                                 |
\*---------------------------------------------------------------------------*/
FoamFile
{
    version     2.0;
    format      ascii;
    class       volScalarField;
    object      p;
}
// * * * * * * * * * * * * * * * * * * * * * * * * * * * * * * * * * * * * * //

dimensions      [1 -1 -2 0 0 0 0]; // kg m s K mol A cd

internalField   uniform 101325; // initially atmospheric

boundaryField
{
    inlet1
    {
        type            zeroGradient;
    }

    outlet1
    {
        type            zeroGradient;
       
    }

    wall1
    {
        type            zeroGradient; // As a result of noSlip used for velocity
    }

    top
    {
        type            zeroGradient;
    }

    bottomEmptyFaces
    {
        type            empty;
    }
    topEmptyFaces
    {
        type            empty;
    }
}


// ************************************************************************* //
